Version 4
SHEET 1 1420 712
WIRE 256 -64 240 -64
WIRE 272 -64 256 -64
WIRE 432 -64 352 -64
WIRE 464 -64 432 -64
WIRE 352 32 352 16
WIRE 256 48 256 -64
WIRE 320 48 256 48
WIRE 464 64 464 -64
WIRE 464 64 384 64
WIRE 480 64 464 64
WIRE 592 64 560 64
WIRE 720 64 672 64
WIRE 736 64 720 64
WIRE 832 64 816 64
WIRE 848 64 832 64
WIRE 944 64 928 64
WIRE 1040 64 944 64
WIRE 1248 64 1136 64
WIRE 1264 64 1248 64
WIRE 16 80 0 80
WIRE 320 80 16 80
WIRE 1264 96 1264 64
WIRE 352 112 352 96
WIRE 720 112 720 64
WIRE 832 112 832 64
WIRE 944 112 944 64
WIRE 1040 112 1040 96
WIRE 1136 112 1136 96
WIRE 720 192 720 176
WIRE 832 192 832 176
WIRE 944 192 944 176
WIRE 0 224 0 80
FLAG -32 0 0
FLAG 48 0 0
FLAG -32 -80 V+
FLAG 48 -80 V-
FLAG 0 304 0
FLAG 160 -64 0
FLAG 352 16 V+
FLAG 352 112 V-
FLAG 720 192 0
FLAG 832 192 0
FLAG 944 192 0
FLAG 1264 176 0
FLAG 1040 112 0
FLAG 1136 112 0
FLAG 16 80 in
FLAG 1248 64 out2
FLAG 432 -64 out1
SYMBOL voltage -32 -96 R0
WINDOW 123 0 0 Left 2
WINDOW 39 0 0 Left 2
SYMATTR InstName V1
SYMATTR Value 10
SYMBOL voltage 48 -96 R0
WINDOW 123 0 0 Left 2
WINDOW 39 0 0 Left 2
SYMATTR InstName V2
SYMATTR Value -10
SYMBOL voltage 0 208 R0
WINDOW 3 -112 151 Left 2
WINDOW 123 -112 179 Left 2
WINDOW 39 0 0 Left 2
SYMATTR Value SINE(0 0.7 {freq})
SYMATTR Value2 AC 1
SYMATTR InstName V5
SYMBOL res 368 -80 R90
WINDOW 0 0 56 VBottom 2
WINDOW 3 32 56 VTop 2
SYMATTR InstName R3
SYMATTR Value 510
SYMBOL res 256 -80 R90
WINDOW 0 0 56 VBottom 2
WINDOW 3 32 56 VTop 2
SYMATTR InstName R4
SYMATTR Value 82
SYMBOL Opamps\\opamp2 352 0 R0
SYMATTR InstName U2
SYMATTR Value THS3001
SYMBOL res 576 48 R90
WINDOW 0 0 56 VBottom 2
WINDOW 3 32 56 VTop 2
SYMATTR InstName R1
SYMATTR Value 50
SYMBOL cap 704 112 R0
SYMATTR InstName C2
SYMATTR Value 33p
SYMBOL ind 720 80 R270
WINDOW 0 32 56 VTop 2
WINDOW 3 5 56 VBottom 2
SYMATTR InstName L1
SYMATTR Value 43n
SYMBOL cap 816 112 R0
SYMATTR InstName C3
SYMATTR Value 47p
SYMBOL ind 832 80 R270
WINDOW 0 32 56 VTop 2
WINDOW 3 5 56 VBottom 2
SYMATTR InstName L2
SYMATTR Value 43n
SYMBOL cap 928 112 R0
SYMATTR InstName C4
SYMATTR Value 33p
SYMBOL tline 1088 80 R0
WINDOW 3 0 49 Top 2
SYMATTR Value Td=1n Z0=50
SYMATTR InstName T1
SYMBOL res 1248 80 R0
SYMATTR InstName R2
SYMATTR Value 0
SYMBOL Pots_Switches\\spst 640 64 R0
SYMATTR InstName SW1
TEXT 200 368 Left 2 !.param freq=100Meg
TEXT 200 344 Left 2 !.tran 0 {10/freq} 0 {.05/freq}
TEXT 200 296 Left 2 !;ac dec 500 1Meg 1G
TEXT 200 320 Left 2 !.lib THS3001.sub
TEXT 656 -32 Left 3 ;5th order Chebyshev LP filter
TEXT 744 0 Left 3 ;fc = 200 MHz
TEXT 160 -168 Left 3 ;Critical node:
TEXT 64 -144 Left 2 ;Stray capacitance will cause oscillation
TEXT 8 144 Left 2 ;Both U2(THS3001) and R1 need temperature sense,\nas they are subject to power in excess of maximum\nduring overload conditions.
TEXT 1088 168 Center 3 ;Output\nConnector
TEXT 632 112 Center 2 ;Output\nProtection\nSwitch
TEXT 528 288 Left 4 ;Scratch prototype: Output amplifier
TEXT 528 328 Left 2 ;Bandwidth: DC to 200 MHz
TEXT 528 360 Left 2 ;Power consumption:\n  1 kHz: 400 mW\n  100 MHz: 660 mW
TEXT 528 448 Left 2 ;Output power: 60 mW / 17.7 dBm
TEXT 528 480 Left 2 ;Predicted subcircuit cost: $12
LINE Normal 224 64 224 -96 2
LINE Normal 336 64 224 64 2
LINE Normal 336 16 336 64 2
LINE Normal 288 -16 336 16 2
LINE Normal 288 -96 288 -16 2
LINE Normal 224 -96 288 -96 2
LINE Normal 224 -96 224 -96 2
LINE Normal 224 -96 224 -96 2
LINE Normal 224 -96 224 -96 2
